 ****** HSPICE -- L-2016.06-SP1 win64 (Aug 24 2016) ******                      
  Copyright (c) 1986 - 2019 by Synopsys, Inc. All Rights Reserved.              
  This software and the associated documentation are proprietary
  to Synopsys, Inc. This software may only be used in accordance
  with the terms and conditions of a written license agreement with
  Synopsys, Inc. All other use, reproduction, or distribution of
  this software is strictly prohibited.
  Input File: 0.9V_nor_or2.sp                                                   
  Command line options: C:\synopsys\Hspice_L-2016.06-SP1\WIN64\hspice.com -i 0.9V_nor_or2.sp -o C:\Users\user\Desktop\university\hspice\circuit\Two_Bit_Digital_Comparator\0.9V_nor_or2.lis
  lic:  
  lic: FLEXlm: v11.2.1 
  lic: USER:   user                 HOSTNAME: acer 
  lic: HOSTID: "28e3479845c2"       PID:      41328 
  lic: Using FLEXlm license file: 
  lic: 27000@acer 
  lic: Checkout 1 hspice 
  lic: License/Maintenance for hspice will expire on 30-dec-2020/2019.2019 
  lic: 1(in_use)/99(total) FLOATING license(s) on SERVER 27000@acer 
  lic:   
1****** HSPICE -- L-2016.06-SP1 win64 (Aug 24 2016) ******                      
 ******  
 #nor_and

 ****** circuit name directory
 circuit number to circuit name directory
   number circuitname                     definition         multiplier
        0 main circuit
        1 x1.                             nor2               1.00 
        2 x2.                             inv                1.00 
  **info** (0.9V_nor_or2.sp:24) DC voltage reset to initial transient source value in source 0:va. new dc=0.0000D+00
 ***************************************************************************
 ***        model parameters  model name:   0:p_18.1   model type:pmos   ***
 ***************************************************************************

   *** general parameters ***
    deriv=   0.           

   ***  level 49  model parameters  ***

       hspver=    2006.03               level=         49         
      version=        3.2            paramchk=          0         
       apwarn=          1                lite=          0         
       vgslim=          0             binUnit=          1         
       capMod=          2               xpart=          1         
       mobMod=          3              nqsMod=          0         
       stiMod=          0                 elm=          5         
     sfvtflag=          0                 tox=   4.2e-009 meter   
           xj=     1e-007 meter       binflag=          0         
         lmin=   1.8e-007 meter          lmax=     5e-005 meter   
         wmin=   2.5e-007 meter          wmax=     0.0001 meter   
         lref=          0 meter          wref=          0 meter   
         lint=-1.041e-008 meter          wint=-1.525e-007 meter   
        lmult=          1               wmult=          1         
           ll= 6.635e-015                 lln=          1         
           lw=-2.873e-016                 lwn=          1         
          lwl=          0                  wl=          0         
          wln=          1                  ww= 1.236e-014         
          wwn=          1                 wwl=          0         
          dwg=-1.251e-007 m/V             dwb=-1.039e-007 m/V^1/2 
           xl=    -2e-009                  xw=          0         
           a0=       1.35                 ags=     0.3818 V^-1    
           b0=-3.088e-007 meter            b1=          0 meter   
         keta=    0.01044 V^-1           voff=    -0.1073 V       
        ngate=     1e+023 cm^-3           vbx=          0 V       
          vbm=         -3 V                xt=  1.55e-007 meter   
         vth0=    -0.4555 V               nch= 6.231e+017 cm^-3   
         nsub=     6e+016 cm^-3           nlx=  2.53e-007 meter   
       gamma1=          0 V^-1/2       gamma2=          0 V^-1/2  
           k1=     0.5704 V^1/2            k2=   0.006973         
           k3=     -2.833                 k3b=      1.326 V^-1    
           w0=-1.943e-007 meter          dvt0=     0.4885         
         dvt1=    0.07578                dvt2=     0.1187 V^-1    
        dvt0w=    -0.1261 meter^-1      dvt1w=      24790 meter^-1
        dvt2w=     0.6915 V^-1           dsub=     1.9191         
         eta0=      1.071                etab=    -0.9291 V^-1    
           u0=      124.5 cm^2/V/sec         ua=  1.54e-009 m/V     
           ub= 2.646e-019 (m/V)^2          uc=   -0.09587 V^-1    
         vsat=      53400 m/sec            a1=          0 v^-1    
           a2=          1               delta=       0.01 V       
         rdsw=      792.1 ohm-um         prwg=          0 V^-1    
         prwb=          0 V^-1/2           wr=          1         
         pclm=      2.653             pdiblc1=          0         
      pdiblc2=     5e-006             pdiblcb=          0 V^-1    
       pscbe1= 4.866e+008 V/m          pscbe2=   2.8e-007 V/m     
        drout=      1.457                pvag=      1.262         
      nfactor=      1.535                cdsc=  0.0007578 f/m^2   
        cdscb=     0.0001 f/V/m^2       cdscd=-2.883e-005 f/V/m^2 
          cit=  -0.001067 f/m^2        alpha0=          0 m/V     
        beta0=         30 V               dlc=  7.01e-008 meter   
          dwc=          0 meter           clc=     1e-007 meter   
          cle=        0.6                cgso= 2.054e-010 f/m     
         cgdo= 2.054e-010 f/m            cgbo=          0 f/m     
         cgsl=          0 f/m            cgdl=          0 f/m     
       ckappa=        0.6                  cf= 1.533e-010 f/m     
         acde=          1 m/V            moin=         15 V^1/2   
         toxm=   4.2e-009 m            dtoxcv=          0 m       
          vfb (not used)                alpha1=          0 1/V     
         ijth=          0 A              noff=          1         
       voffcv=          0                 tcj=          0 1/K     
        tcjsw=          0 1/K          tcjswg=          0 1/K     
          tpb=          0 V/K           tpbsw=          0 V/K     
       tpbswg=          0 V/K             llc= -1.31e-014         
          lwc=          0                lwlc=          0         
          wlc=          0                 wwc=          0         
         wwlc=          0                tnom=     298.15 K       
          kt1=    -0.2294 V              kt1l=-8.204e-009         
          kt2=  -0.009487                 ute=    -0.4484         
          ua1= 4.571e-009 m/V             ub1=-6.026e-018 (m/V)^2 
          uc1=    -0.0985 m/V^2            at=      12030 m/s     
          prt=          0         
          using Berkeley noise model       noiMod=          1         
         noia=     1e+020                noib=      50000         
         noic=  -1.4e-012                  em=   4.2e+007         
           ef=          1                  af=          1         
           kf=          0              gdsnoi=-1.23457e-029         
          using Hspice diodes            using ACM 
          acm=         3                 hdif=  2.6e-007 meter    
         ldif=    8e-008 meter             js=    3e-006 amp/m^2  
          jsw= 4.22e-011 amp/m            xti=         3          
            n=         1                   cj=   0.00124 f/m^2    
           mj=     0.395                   pb=     0.762 V        
         cjsw= 1.74e-010 f/m             mjsw=     0.324          
          php=     0.665 V               pbsw (not used)           
       cjgate= 1.74e-010 f/m            cjswg (not used)           
        mjswg (not used)                 pbswg (not used)           
          la0=     -0.281                lags=    0.04454         
        lketa=     -0.012               lvoff= -0.0009871         
        lvth0=     0.0044                lnlx=-1.584e-008         
          lua=-8.253e-011            lpdiblc2=   0.003012         
          wa0=   -0.04807                wags=   -0.04277         
        wvoff=  -0.009816               wvth0=    -0.0148         
          wua=  2.63e-009               wvsat=     -14200         
        wrdsw=      10.07                wute=    -0.2682         
          wat=      -6405                wprt=      226.6         
          pa0=    0.08661                pags=   -0.04076         
        pvoff=-9.833e-005               pvth0=     0.0032         
          pua= 5.855e-011               pvsat=       -434         
 ***************************************************************************
 ***        model parameters  model name:   0:n_18.1   model type:nmos   ***
 ***************************************************************************

   *** general parameters ***
    deriv=   0.           

   ***  level 49  model parameters  ***

       hspver=    2006.03               level=         49         
      version=        3.2            paramchk=          0         
       apwarn=          1                lite=          0         
       vgslim=          0             binUnit=          1         
       capMod=          2               xpart=          1         
       mobMod=          1              nqsMod=          0         
       stiMod=          0                 elm=          5         
     sfvtflag=          0                 tox=   4.2e-009 meter   
           xj=   1.6e-007 meter       binflag=          0         
         lmin=   1.8e-007 meter          lmax=     5e-005 meter   
         wmin=   2.5e-007 meter          wmax=     0.0001 meter   
         lref=          0 meter          wref=          0 meter   
         lint= 1.587e-008 meter          wint= 1.022e-008 meter   
        lmult=          1               wmult=          1         
           ll=-1.062e-015                 lln=          1         
           lw= 2.996e-015                 lwn=          1         
          lwl=          0                  wl=          0         
          wln=          1                  ww= 7.262e-016         
          wwn=          1                 wwl=          0         
          dwg=-3.396e-009 m/V             dwb= 1.346e-009 m/V^1/2 
           xl= -1.05e-008                  xw=          0         
           a0=       1.93                 ags=     0.5072 V^-1    
           b0= 1.486e-006 meter            b1= 9.064e-006 meter   
         keta=    0.01752 V^-1           voff=    -0.1088 V       
        ngate=     1e+023 cm^-3           vbx=          0 V       
          vbm=         -3 V                xt=  1.55e-007 meter   
         vth0=     0.3075 V               nch=3.7446e+017 cm^-3   
         nsub=     6e+016 cm^-3           nlx= 4.279e-007 meter   
       gamma1=          0 V^-1/2       gamma2=          0 V^-1/2  
           k1=     0.4578 V^1/2            k2=   -0.02638         
           k3=     -10.88                 k3b=     0.2379 V^-1    
           w0=-8.813e-008 meter          dvt0=     0.4042         
         dvt1=     0.3237                dvt2=    -0.8602 V^-1    
        dvt0w=      0.383 meter^-1      dvt1w=     600000 meter^-1
        dvt2w=     -0.025 V^-1           dsub=   0.001592         
         eta0=   0.001004                etab=  -0.001459 V^-1    
           u0=      324.1 cm^2/V/sec         ua=-9.201e-010 m/V     
           ub= 1.907e-018 (m/V)^2          uc= 4.355e-011 V^-1    
         vsat=      72580 m/sec            a1=          0 v^-1    
           a2=          1               delta=       0.01 V       
         rdsw=      4.905 ohm-um         prwg=          0 V^-1    
         prwb=          0 V^-1/2           wr=          1         
         pclm=      1.091             pdiblc1=   0.003061         
      pdiblc2=     1e-006             pdiblcb=          0 V^-1    
       pscbe1= 4.866e+008 V/m          pscbe2=   2.8e-007 V/m     
        drout=   0.001592                pvag=    -0.2958         
      nfactor=      1.038                cdsc=   0.002275 f/m^2   
        cdscb=  0.0008241 f/V/m^2       cdscd=    -0.0005 f/V/m^2 
          cit=  -0.001511 f/m^2        alpha0=          0 m/V     
        beta0=         30 V               dlc=     4e-008 meter   
          dwc=          0 meter           clc=     1e-007 meter   
          cle=        0.6                cgso=  2.35e-010 f/m     
         cgdo=  2.35e-010 f/m            cgbo=          0 f/m     
         cgsl=          0 f/m            cgdl=          0 f/m     
       ckappa=        0.6                  cf= 1.533e-010 f/m     
         acde=          1 m/V            moin=         15 V^1/2   
         toxm=   4.2e-009 m            dtoxcv=          0 m       
          vfb (not used)                alpha1=          0 1/V     
         ijth=          0 A              noff=          1         
       voffcv=          0                 tcj=          0 1/K     
        tcjsw=          0 1/K          tcjswg=          0 1/K     
          tpb=          0 V/K           tpbsw=          0 V/K     
       tpbswg=          0 V/K             llc= -6.64e-015         
          lwc=          0                lwlc=          0         
          wlc=          0                 wwc=          0         
         wwlc=          0                tnom=     298.15 K       
          kt1=    -0.2255 V              kt1l=-4.275e-009         
          kt2=   -0.02527                 ute=     -1.186         
          ua1= 2.253e-009 m/V             ub1=-2.673e-018 (m/V)^2 
          uc1=-3.832e-011 m/V^2            at=      14490 m/s     
          prt=     -10.18         
          using Berkeley noise model       noiMod=          1         
         noia=     1e+020                noib=      50000         
         noic=  -1.4e-012                  em=   4.2e+007         
           ef=          1                  af=          1         
           kf=          0              gdsnoi=-1.23457e-029         
          using Hspice diodes            using ACM 
          acm=         3                 hdif=  2.6e-007 meter    
         ldif=    8e-008 meter             js=    1e-006 amp/m^2  
          jsw=    7e-011 amp/m            xti=         3          
            n=         1                   cj=   0.00103 f/m^2    
           mj=     0.443                   pb=     0.823 V        
         cjsw= 1.34e-010 f/m             mjsw=      0.33          
          php=      0.88 V               pbsw (not used)           
       cjgate=    5e-010 f/m            cjswg (not used)           
        mjswg (not used)                 pbswg (not used)           
          la0=    -0.4667                lags=     0.3028         
        lketa=   -0.01942               lvoff=  -0.004208         
        lvth0=     -0.001                lnlx=-2.854e-008         
        leta0=   0.001574            lpdiblc2=  -0.004752         
          wa0=   -0.04731                wags=   0.004242         
        wvoff= -0.0004078               wvth0=    0.06027         
          wu0=       0.54                 wua= -1.88e-011         
        wvsat=       5066                wute=    0.06373         
          wat=       7067                 pa0=   -0.02649         
        pvoff= -0.0003788                 pw0=   1.3e-009         
          pub=   3.8e-020         
 

  
      
 **info** set option symb=1 internally to help for convergence.
 *****************************************************************
 ******  option summary
 ******
 runlvl  = 3         bypass  = 2.0000    
  Opening plot unit= 79
 file=C:\Users\user\Desktop\university\hspice\circuit\Two_Bit_Digital_Comparator\0.9V_nor_or2.pa0

 **info** dc convergence successful at Newton-Raphson method 
 ******  
 #nor_and

 ****** operating point information tnom=  25.000 temp=  25.000 ******
 ****** operating point status is voltage   simulation time is     0.     
    node    =voltage      node    =voltage      node    =voltage

 +0:a       =   0.      0:b       =   0.      0:ia_b    =   1.8000 
 +0:out     =  11.9236n 0:vdd     =   1.8000  1:s_1     =   1.8000 


          ***** job concluded
 ******  
 #nor_and

 ****** job statistics summary tnom=  25.000 temp=  25.000 ******

  ******  HSPICE Threads Information  ******

  Command Line Threads Count :     1
  Available CPU Count        :     4
  Actual Threads Count       :     1


  ******  Circuit Statistics  ******
  # nodes       =      19 # elements   =      10
  # resistors   =       0 # capacitors =       1 # inductors   =       0
  # mutual_inds =       0 # vccs       =       0 # vcvs        =       0
  # cccs        =       0 # ccvs       =       0 # volt_srcs   =       3
  # curr_srcs   =       0 # diodes     =       0 # bjts        =       0
  # jfets       =       0 # mosfets    =       6 # U elements  =       0
  # T elements  =       0 # W elements =       0 # B elements  =       0
  # S elements  =       0 # P elements =       0 # va device   =       0
  # vector_srcs =       0 # N elements =       0


  ******  Runtime Statistics (seconds)  ******

  analysis           time    # points   tot. iter  conv.iter
  op point           0.05           1           4
  transient          0.07        4001        2474         922 rev=        58
  readin             0.02
  errchk             0.01
  setup              0.01
  output             0.00


           peak memory used         45.81 megabytes
           total cpu time            0.13 seconds
           total elapsed time        0.47 seconds
           job started at     00:37:05 11/27/2019
           job ended   at     00:37:05 11/27/2019


  lic: Release hspice token(s) 
 lic: total license checkout elapse time:        0.33(s)
