$DATA1 SOURCE='HSPICE' VERSION='A-2008.03 32-BIT'
.TITLE '#programmable_output_driver'
 tr               tf               tmis             maxi              
 temper           alter#            
  1.404e-08        1.402e-08        1.273e-11        1.492e-02        
    0.               2.0000         
