$DATA1 SOURCE='HSPICE' VERSION='A-2008.03 32-BIT'
.TITLE '#programmable_output_driver'
 tr               tf               tmis             maxi              
 temper           alter#            
  1.517e-08        1.512e-08        4.850e-11        1.384e-02        
   25.0000           1.0000         
